  
       XFOIL         Version 6.99
  
 Calculated polar for: CLARK Y AIRFOIL                                 
  
 1 1 Reynolds number fixed          Mach number fixed         
  
 xtrf =   1.000 (top)        1.000 (bottom)  
 Mach =   0.000     Re =     0.160 e 6     Ncrit =   9.000
  
   alpha    CL        CD       CDp       CM     Top_Xtr  Bot_Xtr
  ------ -------- --------- --------- -------- -------- --------
  -5.000   0.6676   0.07712   0.07069  -0.1937   0.8545   0.3969
  -4.000   0.6240   0.06422   0.05874  -0.1568   0.7466   0.4558
  -2.900   0.8272   0.08090   0.07507  -0.1819   0.7839   0.5525
  -2.000   0.9411   0.07946   0.07368  -0.1811   0.7595   0.6037
  -1.000   1.0325   0.07638   0.07077  -0.1769   0.7250   0.6500
   0.000   1.1345   0.07275   0.06734  -0.1743   0.6895   0.6988
   1.000   1.2679   0.06758   0.06239  -0.1746   0.6592   0.7469
   2.000   1.4326   0.05865   0.05319  -0.1772   0.5710   0.7871
   3.000   1.5191   0.05747   0.05132  -0.1716   0.4488   0.8199
   4.000   1.5796   0.05905   0.05269  -0.1638   0.3765   0.9998
   5.000   1.6264   0.06277   0.05625  -0.1553   0.3075   0.9998
   6.000   1.6627   0.06785   0.06144  -0.1464   0.2356   0.9998
   7.000   1.6741   0.07540   0.06863  -0.1361   0.1454   0.9998
   8.000   1.6845   0.08343   0.07667  -0.1269   0.0978   0.9998
   9.000   1.6675   0.09530   0.08854  -0.1181   0.0443   0.9998
  10.000   1.6445   0.10928   0.10290  -0.1129   0.0312   0.9998
  -1.000   1.0196   0.07653   0.07092  -0.1756   0.7182   0.6484
  -0.800   1.0448   0.07560   0.07005  -0.1755   0.7143   0.6581
  -0.600   1.0651   0.07501   0.06948  -0.1750   0.7070   0.6688
  -0.400   1.0899   0.07408   0.06860  -0.1749   0.7024   0.6787
  -0.200   1.1182   0.07309   0.06763  -0.1752   0.6996   0.6900
   0.000   1.1345   0.07275   0.06734  -0.1743   0.6895   0.6988
   0.200   1.1607   0.07184   0.06646  -0.1743   0.6843   0.7094
   0.400   1.1895   0.07066   0.06536  -0.1746   0.6807   0.7202
   0.600   1.2199   0.06930   0.06403  -0.1751   0.6777   0.7302
   0.800   1.2377   0.06899   0.06377  -0.1742   0.6648   0.7377
   1.000   1.2679   0.06758   0.06239  -0.1746   0.6592   0.7469
   1.200   1.2942   0.06657   0.06141  -0.1746   0.6491   0.7548
   1.400   1.3265   0.06490   0.05973  -0.1751   0.6386   0.7630
   1.600   1.3588   0.06316   0.05795  -0.1755   0.6211   0.7713
   1.800   1.3959   0.06091   0.05564  -0.1764   0.5989   0.7791
   2.000   1.4326   0.05865   0.05319  -0.1772   0.5710   0.7871
   2.200   1.4553   0.05778   0.05214  -0.1765   0.5387   0.7937
   2.400   1.4747   0.05726   0.05141  -0.1755   0.5106   0.7994
   2.600   1.4906   0.05715   0.05116  -0.1743   0.4869   0.8054
   2.800   1.5053   0.05724   0.05113  -0.1729   0.4665   0.8120
   4.000   1.5796   0.05905   0.05269  -0.1638   0.3765   0.9998
   3.900   1.5746   0.05866   0.05228  -0.1646   0.3839   0.9998
   3.800   1.5685   0.05850   0.05221  -0.1654   0.3909   0.9998
   3.700   1.5630   0.05820   0.05193  -0.1662   0.3985   0.9998
   3.600   1.5571   0.05793   0.05166  -0.1669   0.4057   0.9998
   3.500   1.5505   0.05779   0.05161  -0.1677   0.4126   0.9998
   3.400   1.5441   0.05757   0.05141  -0.1684   0.4199   0.9998
   3.300   1.5382   0.05751   0.05135  -0.1692   0.4266   0.8686
   3.200   1.5329   0.05769   0.05159  -0.1702   0.4334   0.8331
   3.100   1.5263   0.05756   0.05146  -0.1709   0.4411   0.8255
   3.000   1.5191   0.05747   0.05132  -0.1716   0.4488   0.8199
   4.000   1.5796   0.05905   0.05269  -0.1638   0.3765   0.9998
   3.800   1.5685   0.05850   0.05221  -0.1654   0.3909   0.9998
   3.600   1.5571   0.05793   0.05166  -0.1669   0.4057   0.9998
   3.400   1.5441   0.05757   0.05141  -0.1684   0.4199   0.9998
   3.200   1.5329   0.05769   0.05159  -0.1702   0.4334   0.8331
   3.000   1.5191   0.05747   0.05132  -0.1716   0.4488   0.8199
   2.800   1.5053   0.05724   0.05113  -0.1729   0.4665   0.8120
   2.600   1.4906   0.05715   0.05116  -0.1743   0.4869   0.8054
   2.400   1.4747   0.05726   0.05141  -0.1755   0.5106   0.7994
   2.200   1.4553   0.05778   0.05214  -0.1765   0.5387   0.7937
   2.000   1.4326   0.05865   0.05319  -0.1772   0.5710   0.7871
  -2.000   0.9411   0.07946   0.07368  -0.1811   0.7595   0.6037
  -2.100   0.9254   0.07946   0.07370  -0.1806   0.7604   0.5952
  -2.200   0.9114   0.07954   0.07375  -0.1805   0.7614   0.5901
  -2.300   0.8983   0.07966   0.07385  -0.1806   0.7629   0.5865
  -2.400   0.8844   0.07977   0.07397  -0.1804   0.7648   0.5794
  -2.500   0.8728   0.07994   0.07414  -0.1806   0.7678   0.5730
  -2.600   0.8729   0.08086   0.07503  -0.1825   0.7789   0.5703
  -2.700   0.8578   0.08081   0.07497  -0.1824   0.7800   0.5666
  -2.900   0.8272   0.08090   0.07507  -0.1819   0.7839   0.5525
  -3.100   0.8098   0.08201   0.07614  -0.1836   0.7990   0.5456
  -3.200   0.7943   0.08178   0.07592  -0.1832   0.8006   0.5373
  -3.300   0.7809   0.08166   0.07580  -0.1833   0.8031   0.5298
  -3.600   0.6708   0.06369   0.05831  -0.1563   0.7409   0.4903
  -3.700   0.6591   0.06386   0.05842  -0.1566   0.7419   0.4833
  -3.800   0.6464   0.06398   0.05856  -0.1565   0.7431   0.4723
  -3.900   0.6351   0.06412   0.05866  -0.1567   0.7446   0.4642
  -4.000   0.6240   0.06422   0.05874  -0.1568   0.7466   0.4558
  -4.100   0.6148   0.06428   0.05880  -0.1571   0.7499   0.4469
  -4.200   0.6173   0.06432   0.05880  -0.1589   0.7598   0.4435
  -4.300   0.6027   0.06444   0.05891  -0.1586   0.7608   0.4312
  -4.400   0.5893   0.06458   0.05900  -0.1586   0.7621   0.4196
  -4.500   0.5752   0.06473   0.05916  -0.1583   0.7639   0.4042
  -4.600   0.5627   0.06491   0.05932  -0.1583   0.7666   0.3896
  -4.700   0.7091   0.07975   0.07341  -0.1951   0.8529   0.4398
  -4.800   0.6947   0.07876   0.07242  -0.1945   0.8533   0.4246
  -4.900   0.6809   0.07788   0.07152  -0.1941   0.8539   0.4104
  -5.000   0.6676   0.07712   0.07069  -0.1937   0.8545   0.3969
   0.000   1.1345   0.07275   0.06734  -0.1743   0.6895   0.6988
   1.000   1.2679   0.06758   0.06239  -0.1746   0.6592   0.7469
