  
       XFOIL         Version 6.99
  
 Calculated polar for: CLARK Y AIRFOIL                                 
  
 1 1 Reynolds number fixed          Mach number fixed         
  
 xtrf =   1.000 (top)        1.000 (bottom)  
 Mach =   0.000     Re =     0.160 e 6     Ncrit =   9.000
  
   alpha    CL        CD       CDp       CM     Top_Xtr  Bot_Xtr
  ------ -------- --------- --------- -------- -------- --------
  -5.000   0.7759   0.09417   0.08822  -0.1991   0.8213   0.4373
  -4.000   0.8237   0.09635   0.09071  -0.1911   0.7904   0.4910
  -3.000   0.9252   0.09388   0.08835  -0.1866   0.7520   0.5352
  -1.000   1.1264   0.08770   0.08252  -0.1805   0.6956   0.6251
  -2.000   1.0179   0.09124   0.08587  -0.1828   0.7225   0.5779
   0.000   1.2464   0.08332   0.07840  -0.1791   0.6692   0.6750
   1.000   1.3852   0.07704   0.07229  -0.1793   0.6246   0.7263
   2.000   1.5251   0.07041   0.06491  -0.1797   0.4970   0.7641
   3.000   1.5974   0.07087   0.06485  -0.1735   0.4084   0.7858
   4.000   1.6481   0.07373   0.06746  -0.1654   0.3330   0.8035
   5.000   1.6878   0.07804   0.07194  -0.1567   0.2666   0.8223
   6.000   1.6994   0.08475   0.07840  -0.1461   0.1702   0.9998
   7.000   1.7069   0.09257   0.08610  -0.1365   0.1129   0.9998
   8.000   1.6989   0.10272   0.09624  -0.1278   0.0541   0.9998
   9.000   1.6768   0.11577   0.10949  -0.1220   0.0324   0.9998
  10.000   1.6537   0.12994   0.12408  -0.1201   0.0268   0.9998
  -1.000   1.1264   0.08770   0.08252  -0.1805   0.6956   0.6251
  -1.100   1.1182   0.08787   0.08267  -0.1810   0.7003   0.6205
  -1.200   1.1132   0.08792   0.08269  -0.1818   0.7058   0.6173
  -1.300   1.1002   0.08849   0.08323  -0.1819   0.7069   0.6138
  -1.400   1.0860   0.08895   0.08369  -0.1818   0.7082   0.6075
  -1.500   1.0726   0.08941   0.08415  -0.1817   0.7099   0.6015
  -1.600   1.0609   0.08986   0.08456  -0.1819   0.7120   0.5972
  -1.700   1.0514   0.09024   0.08491  -0.1823   0.7152   0.5941
  -1.800   1.0454   0.09050   0.08513  -0.1831   0.7198   0.5920
  -1.900   1.0303   0.09084   0.08549  -0.1827   0.7209   0.5829
  -2.000   1.0179   0.09124   0.08587  -0.1828   0.7225   0.5779
